#!/sbin/sh
SKIPMOUNT=false
PROPFILE=false
POSTFSDATA=false
LATESTARTSERVICE=true
ui_print "--------------------------------------"
ui_print "    Nexus-KHF Evolution - Installer   "
ui_print "    Dispositivo: Spes (SD680)         "
ui_print "--------------------------------------"
unzip -o "$ZIPFILE" "system/*" -d "$MODPATH" >&2
